
     RDKit          3D

 32 35  0  0  0  0  0  0  0  0999 V2000
  -15.0332   19.2163  -24.4125 C   0  0  2  0  0  0  0  0  0  0  0  0
  -15.9519   19.3870  -25.6223 C   0  0  2  0  0  0  0  0  0  0  0  0
  -15.0689   18.9824  -26.8026 C   0  0  0  0  0  0  0  0  0  0  0  0
  -14.1316   18.0162  -26.2410 N   0  0  0  0  0  0  0  0  0  0  0  0
  -14.2573   17.9400  -24.7881 C   0  0  0  0  0  0  0  0  0  0  0  0
  -13.8424   16.8609  -26.9350 C   0  0  0  0  0  0  0  0  0  0  0  0
  -14.6574   15.7958  -26.7619 N   0  0  0  0  0  0  0  0  0  0  0  0
  -14.4429   14.6278  -27.4228 C   0  0  0  0  0  0  0  0  0  0  0  0
  -13.3324   14.5789  -28.2815 C   0  0  0  0  0  0  0  0  0  0  0  0
  -12.5604   15.7168  -28.3701 C   0  0  0  0  0  0  0  0  0  0  0  0
  -12.7601   16.8767  -27.7351 N   0  0  0  0  0  0  0  0  0  0  0  0
  -11.5542   15.3948  -29.2425 N   0  0  0  0  0  0  0  0  0  0  0  0
  -11.7741   14.1101  -29.6658 C   0  0  0  0  0  0  0  0  0  0  0  0
  -12.8329   13.5759  -29.0896 N   0  0  0  0  0  0  0  0  0  0  0  0
  -10.4572   16.2673  -29.6331 C   0  0  0  0  0  0  0  0  0  0  0  0
   -9.6074   15.6629  -30.7528 C   0  0  0  0  0  0  0  0  0  0  0  0
  -10.9638   17.6600  -30.0025 C   0  0  0  0  0  0  0  0  0  0  0  0
  -15.2438   13.4800  -27.2808 N   0  0  0  0  0  0  0  0  0  0  0  0
  -16.4068   13.2429  -26.6369 C   0  0  0  0  0  0  0  0  0  0  0  0
  -17.1909   14.2680  -26.1496 C   0  0  0  0  0  0  0  0  0  0  0  0
  -18.2803   13.6799  -25.5801 N   0  0  0  0  0  0  0  0  0  0  0  0
  -18.2548   12.3392  -25.6240 N   0  0  0  0  0  0  0  0  0  0  0  0
  -17.1156   12.0679  -26.2754 C   0  0  0  0  0  0  0  0  0  0  0  0
  -16.7456   10.7816  -26.4612 O   0  0  0  0  0  0  0  0  0  0  0  0
  -17.5964   10.0529  -27.3373 C   0  0  0  0  0  0  0  0  0  0  0  0
  -19.4131   14.3433  -24.9856 C   0  0  0  0  0  0  0  0  0  0  0  0
  -15.7545   19.1099  -23.1472 N   0  0  0  0  0  0  0  0  0  0  0  0
  -15.0842   19.2255  -21.9464 C   0  0  0  0  0  0  0  0  0  0  0  0
  -16.0101   19.5005  -20.7771 C   0  0  0  0  0  0  0  0  0  0  0  0
  -15.2540   19.9574  -19.5415 C   0  0  0  0  0  0  0  0  0  0  0  0
  -13.8716   19.0860  -21.8413 O   0  0  0  0  0  0  0  0  0  0  0  0
  -16.3696   20.6695  -25.7392 F   0  0  0  0  0  0  0  0  0  0  0  0
  1  2  1  0
  1 27  1  1
  2  3  1  0
  2 32  1  6
  3  4  1  0
  1  5  1  0
  4  5  1  0
  4  6  1  0
  6  7  4  0
  6 11  4  0
  7  8  4  0
  8  9  4  0
  8 18  1  0
  9 14  4  0
  9 10  4  0
 10 11  4  0
 10 12  4  0
 12 13  4  0
 12 15  1  0
 13 14  4  0
 15 16  1  0
 15 17  1  0
 18 19  1  0
 19 23  4  0
 19 20  4  0
 20 21  4  0
 21 22  4  0
 22 23  4  0
 23 24  1  0
 24 25  1  0
 21 26  1  0
 27 28  1  0
 28 29  1  0
 28 31  2  0
 29 30  1  0
M  END
