
     RDKit          3D

 30 33  0  0  0  0  0  0  0  0999 V2000
  -15.3127   18.2783  -24.4342 C   0  0  1  0  0  0  0  0  0  0  0  0
  -16.3177   18.7755  -25.4687 C   0  0  2  0  0  0  0  0  0  0  0  0
  -15.8623   18.0996  -26.7581 C   0  0  0  0  0  0  0  0  0  0  0  0
  -14.4092   17.9311  -26.6170 N   0  0  0  0  0  0  0  0  0  0  0  0
  -14.0003   18.2409  -25.2428 C   0  0  0  0  0  0  0  0  0  0  0  0
  -13.9564   16.7634  -27.2173 C   0  0  0  0  0  0  0  0  0  0  0  0
  -14.5863   15.5958  -26.9586 N   0  0  0  0  0  0  0  0  0  0  0  0
  -14.1859   14.4384  -27.5570 C   0  0  0  0  0  0  0  0  0  0  0  0
  -13.0795   14.5096  -28.4163 C   0  0  0  0  0  0  0  0  0  0  0  0
  -12.5119   15.7531  -28.6001 C   0  0  0  0  0  0  0  0  0  0  0  0
  -12.9124   16.9067  -28.0565 N   0  0  0  0  0  0  0  0  0  0  0  0
  -11.4608   15.5420  -29.4496 N   0  0  0  0  0  0  0  0  0  0  0  0
  -11.4513   14.2066  -29.7631 C   0  0  0  0  0  0  0  0  0  0  0  0
  -12.4226   13.5497  -29.1597 N   0  0  0  0  0  0  0  0  0  0  0  0
  -10.5298   16.5548  -29.9240 C   0  0  0  0  0  0  0  0  0  0  0  0
  -10.9721   17.1233  -31.2739 C   0  0  0  0  0  0  0  0  0  0  0  0
   -9.0983   16.0283  -29.9801 C   0  0  0  0  0  0  0  0  0  0  0  0
  -14.8252   13.1999  -27.3583 N   0  0  0  0  0  0  0  0  0  0  0  0
  -15.9989   12.8981  -26.7730 C   0  0  0  0  0  0  0  0  0  0  0  0
  -16.8037   11.8526  -27.1595 C   0  0  0  0  0  0  0  0  0  0  0  0
  -17.8869   11.8845  -26.3276 N   0  0  0  0  0  0  0  0  0  0  0  0
  -17.8473   12.8866  -25.4323 N   0  0  0  0  0  0  0  0  0  0  0  0
  -16.6914   13.5075  -25.7054 C   0  0  0  0  0  0  0  0  0  0  0  0
  -19.0165   10.9886  -26.3440 C   0  0  0  0  0  0  0  0  0  0  0  0
  -15.2689   19.1409  -23.2602 N   0  0  0  0  0  0  0  0  0  0  0  0
  -15.7452   18.6987  -22.0439 C   0  0  0  0  0  0  0  0  0  0  0  0
  -15.4422   19.6576  -20.9100 C   0  0  0  0  0  0  0  0  0  0  0  0
  -16.2592   19.3541  -19.6634 C   0  0  0  0  0  0  0  0  0  0  0  0
  -16.3545   17.6419  -21.9095 O   0  0  0  0  0  0  0  0  0  0  0  0
  -16.2051   20.1339  -25.5953 F   0  0  0  0  0  0  0  0  0  0  0  0
  1  2  1  0
  1 25  1  1
  2  3  1  0
  2 30  1  6
  3  4  1  0
  1  5  1  0
  4  5  1  0
  4  6  1  0
  6  7  4  0
  6 11  4  0
  7  8  4  0
  8  9  4  0
  8 18  1  0
  9 14  4  0
  9 10  4  0
 10 11  4  0
 10 12  4  0
 12 13  4  0
 12 15  1  0
 13 14  4  0
 15 16  1  0
 15 17  1  0
 18 19  1  0
 19 23  4  0
 19 20  4  0
 20 21  4  0
 21 22  4  0
 22 23  4  0
 21 24  1  0
 25 26  1  0
 26 29  2  0
 26 27  1  0
 27 28  1  0
M  END
