obj04
  PyMOL3.1          3D                             0

 30 33  0  0  0  0  0  0  0  0999 V2000
  -15.3170   18.0080  -25.0490 C   0  0  0  0  0  0  0  0  0  0  0  0
  -14.6970   18.9160  -26.0950 C   0  0  0  0  0  0  0  0  0  0  0  0
  -13.4440   18.1590  -26.5260 C   0  0  0  0  0  0  0  0  0  0  0  0
  -13.8990   16.7860  -26.4740 N   0  0  0  0  0  0  0  0  0  0  0  0
  -15.0620   16.6030  -25.6110 C   0  0  0  0  0  0  0  0  0  0  0  0
  -13.2960   15.7470  -27.1490 C   0  0  0  0  0  0  0  0  0  0  0  0
  -13.8470   14.5090  -26.9970 N   0  0  0  0  0  0  0  0  0  0  0  0
  -13.3240   13.3790  -27.5890 C   0  0  0  0  0  0  0  0  0  0  0  0
  -12.1660   13.5560  -28.3890 C   0  0  0  0  0  0  0  0  0  0  0  0
  -11.6800   14.8600  -28.4990 C   0  0  0  0  0  0  0  0  0  0  0  0
  -12.1910   15.9810  -27.9150 N   0  0  0  0  0  0  0  0  0  0  0  0
  -10.5940   14.7630  -29.3130 N   0  0  0  0  0  0  0  0  0  0  0  0
  -10.4560   13.4440  -29.6560 C   0  0  0  0  0  0  0  0  0  0  0  0
  -11.3900   12.6860  -29.1170 N   0  0  0  0  0  0  0  0  0  0  0  0
   -9.7480   15.8520  -29.7370 C   0  0  0  0  0  0  0  0  0  0  0  0
  -13.9450   12.1250  -27.4310 N   0  0  0  0  0  0  0  0  0  0  0  0
  -15.1190   11.8410  -26.7970 C   0  0  0  0  0  0  0  0  0  0  0  0
  -15.8440   12.5310  -25.8370 C   0  0  0  0  0  0  0  0  0  0  0  0
  -16.9490   11.7730  -25.5900 N   0  0  0  0  0  0  0  0  0  0  0  0
  -17.0040   10.6400  -26.3160 N   0  0  0  0  0  0  0  0  0  0  0  0
  -15.8820   10.6910  -27.0500 C   0  0  0  0  0  0  0  0  0  0  0  0
  -15.5240    9.7320  -27.9550 O   0  0  0  0  0  0  0  0  0  0  0  0
  -16.4200    8.6310  -28.1090 C   0  0  0  0  0  0  0  0  0  0  0  0
  -18.0140   12.0750  -24.6620 C   0  0  0  0  0  0  0  0  0  0  0  0
  -14.6050   18.1890  -23.7740 N   0  0  0  0  0  0  0  0  0  0  0  0
  -15.0610   17.7210  -22.5510 C   0  0  0  0  0  0  0  0  0  0  0  0
  -14.0800   18.0860  -21.4410 C   0  0  0  0  0  0  0  0  0  0  0  0
  -14.3550   17.3890  -20.1160 C   0  0  0  0  0  0  0  0  0  0  0  0
  -16.1100   17.0990  -22.3720 O   0  0  0  0  0  0  0  0  0  0  0  0
  -15.5660   19.0150  -27.1490 F   0  0  0  0  0  0  0  0  0  0  0  0
  1  2  1  0  0  0  0
  1 25  1  0  0  0  0
  2  3  1  0  0  0  0
  2 30  1  0  0  0  0
  3  4  1  0  0  0  0
  1  5  1  0  0  0  0
  4  5  1  0  0  0  0
  4  6  1  0  0  0  0
  6  7  4  0  0  0  0
  6 11  4  0  0  0  0
  7  8  4  0  0  0  0
  8  9  4  0  0  0  0
  8 16  1  0  0  0  0
  9 14  4  0  0  0  0
  9 10  4  0  0  0  0
 10 11  4  0  0  0  0
 10 12  4  0  0  0  0
 12 13  4  0  0  0  0
 12 15  1  0  0  0  0
 13 14  4  0  0  0  0
 16 17  1  0  0  0  0
 17 18  4  0  0  0  0
 17 21  4  0  0  0  0
 18 19  4  0  0  0  0
 19 20  4  0  0  0  0
 20 21  4  0  0  0  0
 21 22  1  0  0  0  0
 22 23  1  0  0  0  0
 19 24  1  0  0  0  0
 25 26  1  0  0  0  0
 26 29  2  0  0  0  0
 26 27  1  0  0  0  0
 27 28  1  0  0  0  0
M  END
$$$$
