
 OpenBabel08312523293D

 19  0  0  0  0  0  0  0  0  0999 V2000
  -12.7507   14.6720  -27.7563 Ar  0  0  0  0  0  0  0  0  0  0  0  0
  -11.2572   13.8618  -28.9948 Ar  0  0  0  0  0  0  0  0  0  0  0  0
  -16.1596   11.4952  -26.3180 Ar  0  0  0  0  0  0  0  0  0  0  0  0
  -13.9450   12.1250  -27.4310 H   0  0  0  0  0 15  0  0  0  0  0  0
  -14.6050   18.1890  -23.7740 H   0  0  0  0  0 15  0  0  0  0  0  0
  -13.8470   14.5090  -26.9970 Ac  0  0  0  0  0  0  0  0  0  0  0  0
  -12.1910   15.9810  -27.9150 Ac  0  0  0  0  0  0  0  0  0  0  0  0
  -11.3900   12.6860  -29.1170 Ac  0  0  0  0  0  0  0  0  0  0  0  0
  -17.0040   10.6400  -26.3160 Ac  0  0  0  0  0  0  0  0  0  0  0  0
  -15.5240    9.7320  -27.9550 Ac  0  0  0  0  0  0  0  0  0  0  0  0
  -16.1100   17.0990  -22.3720 Ac  0  0  0  0  0  0  0  0  0  0  0  0
  -12.7507   14.6720  -27.7563 C   0  0  0  0  0 15  0  0  0  0  0  0
  -11.2572   13.8618  -28.9948 C   0  0  0  0  0 15  0  0  0  0  0  0
  -16.1596   11.4952  -26.3180 C   0  0  0  0  0 15  0  0  0  0  0  0
   -9.7480   15.8520  -29.7370 C   0  0  0  0  0 15  0  0  0  0  0  0
  -16.4200    8.6310  -28.1090 C   0  0  0  0  0 15  0  0  0  0  0  0
  -18.0140   12.0750  -24.6620 C   0  0  0  0  0 15  0  0  0  0  0  0
  -15.5660   19.0150  -27.1490 C   0  0  0  0  0 15  0  0  0  0  0  0
  -14.2175   17.7375  -20.7785 C   0  0  0  0  0 15  0  0  0  0  0  0
M  END
$$$$
