
 OpenBabel08312522573D

 17  0  0  0  0  0  0  0  0  0999 V2000
  -12.3552   14.6004  -28.8508 Ar  0  0  0  0  0  0  0  0  0  0  0  0
  -15.1687   17.4766  -26.3153 Ar  0  0  0  0  0  0  0  0  0  0  0  0
  -10.6405   15.3021  -29.9042 Ar  0  0  0  0  0  0  0  0  0  0  0  0
  -16.0653   12.4612  -26.5775 Ar  0  0  0  0  0  0  0  0  0  0  0  0
  -11.9743   13.2543  -29.1576 H   0  0  0  0  0 15  0  0  0  0  0  0
  -14.3357   17.9866  -23.6308 H   0  0  0  0  0 15  0  0  0  0  0  0
  -13.9008   12.4777  -27.9667 H   0  0  0  0  0 15  0  0  0  0  0  0
  -13.4744   14.8275  -28.1288 Ac  0  0  0  0  0  0  0  0  0  0  0  0
  -10.1144   14.3367  -30.2826 Ac  0  0  0  0  0  0  0  0  0  0  0  0
  -16.8843   11.7373  -26.0875 Ac  0  0  0  0  0  0  0  0  0  0  0  0
  -16.1426   17.4552  -22.2194 Ac  0  0  0  0  0  0  0  0  0  0  0  0
  -12.3552   14.6004  -28.8508 C   0  0  0  0  0 15  0  0  0  0  0  0
  -15.1687   17.4766  -26.3153 C   0  0  0  0  0 15  0  0  0  0  0  0
  -10.6405   15.3021  -29.9042 C   0  0  0  0  0 15  0  0  0  0  0  0
  -16.0653   12.4612  -26.5775 C   0  0  0  0  0 15  0  0  0  0  0  0
  -17.8408   13.8361  -25.3669 C   0  0  0  0  0 15  0  0  0  0  0  0
  -14.1643   17.9197  -20.6265 C   0  0  0  0  0 15  0  0  0  0  0  0
M  END
$$$$
